  0
SECTION
  2
ENTITIES
999
DXF created from EnergyPlus
999
Program Version,EnergyPlus, Version 8.7.0-78a111df4a, YMD=2023.07.04 17:30
999
Polygon Action,TRIANGULATE3DFACE
999
Color Scheme,Default
999
Text - True North
  0
TEXT
  8
1
  6
Continuous
 62
  3
 10
      -11.00000
 20
        3.00000
 30
        0.10000
 40
 .25
  1
True North
 41
 0.0
  7
MONOTXT
210
0.0
220
0.0
230
1.0
999
Text - Building Title
  0
TEXT
  8
1
  6
Continuous
 62
  3
 10
      -14.00000
 20
       -1.00000
 30
        0.10000
 40
 .4
  1
Building - Building 1
 41
 0.0
  7
MONOTXT
210
0.0
220
0.0
230
1.0
999
North Arrow Stem
  0
3DFACE
  8
1
 62
  3
 10
      -10.00000
 20
        3.00000
 30
        0.10000
 11
      -10.00000
 21
        3.00000
 31
        0.00000
 12
      -10.00000
 22
        0.00000
 32
        0.00000
 13
      -10.00000
 23
        0.00000
 33
        0.10000
999
North Arrow Head 1
  0
3DFACE
  8
1
 62
  3
 10
      -10.00000
 20
        3.00000
 30
        0.10000
 11
      -10.00000
 21
        3.00000
 31
        0.00000
 12
      -10.50000
 22
        2.13397
 32
        0.00000
 13
      -10.50000
 23
        2.13397
 33
        0.10000
999
North Arrow Head 2
  0
3DFACE
  8
1
 62
  3
 10
      -10.00000
 20
        3.00000
 30
        0.10000
 11
      -10.00000
 21
        3.00000
 31
        0.00000
 12
       -9.50000
 22
        2.13397
 32
        0.00000
 13
       -9.50000
 23
        2.13397
 33
        0.10000
999
North Arrow Side 1
  0
3DFACE
  8
1
 62
  3
 10
      -10.50000
 20
        4.50000
 30
        0.10000
 11
      -10.50000
 21
        4.50000
 31
        0.00000
 12
      -10.50000
 22
        3.50000
 32
        0.00000
 13
      -10.50000
 23
        3.50000
 33
        0.10000
999
North Arrow Side 2
  0
3DFACE
  8
1
 62
  3
 10
      -10.50000
 20
        4.50000
 30
        0.10000
 11
      -10.50000
 21
        4.50000
 31
        0.00000
 12
       -9.50000
 22
        3.50000
 32
        0.00000
 13
       -9.50000
 23
        3.50000
 33
        0.10000
999
North Arrow Side 3
  0
3DFACE
  8
1
 62
  3
 10
       -9.50000
 20
        4.50000
 30
        0.10000
 11
       -9.50000
 21
        4.50000
 31
        0.00000
 12
       -9.50000
 22
        3.50000
 32
        0.00000
 13
       -9.50000
 23
        3.50000
 33
        0.10000
999
Zone Names
999
Zone=1:THERMAL_ZONE_1
999
Zone=2:THERMAL_ZONE_2
999
Zone=3:THERMAL_ZONE_3
999
THERMAL ZONE 1:SURFACE 11
  0
3DFACE
  8
THERMAL_ZONE_1
 62
 43
 10
        3.00000
 20
        2.00000
 30
        3.50000
 11
        3.00000
 21
        2.00000
 31
        0.00000
 12
        3.00000
 22
        6.00000
 32
        0.00000
 13
        3.00000
 23
        6.00000
 33
        3.50000
999
THERMAL ZONE 1:SURFACE 12
  0
3DFACE
  8
THERMAL_ZONE_1
 62
 43
 10
        0.00000
 20
        2.00000
 30
        3.50000
 11
        0.00000
 21
        2.00000
 31
        0.00000
 12
        3.00000
 22
        2.00000
 32
        0.00000
 13
        3.00000
 23
        2.00000
 33
        3.50000
999
THERMAL ZONE 1:SURFACE 13
  0
3DFACE
  8
THERMAL_ZONE_1
 62
 43
 10
        3.00000
 20
        6.00000
 30
        3.50000
 11
        3.00000
 21
        6.00000
 31
        0.00000
 12
        0.00000
 22
        6.00000
 32
        0.00000
 13
        0.00000
 23
        6.00000
 33
        3.50000
999
THERMAL ZONE 1:SURFACE 9
  0
3DFACE
  8
THERMAL_ZONE_1
 62
 43
 10
        0.00000
 20
        6.00000
 30
        3.50000
 11
        0.00000
 21
        6.00000
 31
        0.00000
 12
        0.00000
 22
        2.00000
 32
        0.00000
 13
        0.00000
 23
        2.00000
 33
        3.50000
999
THERMAL ZONE 1:SURFACE 2
  0
3DFACE
  8
THERMAL_ZONE_1
 62
  8
 10
        3.00000
 20
        6.00000
 30
        0.00000
 11
        3.00000
 21
        2.00000
 31
        0.00000
 12
        0.00000
 22
        2.00000
 32
        0.00000
 13
        0.00000
 23
        6.00000
 33
        0.00000
999
THERMAL ZONE 1:SURFACE 10
  0
3DFACE
  8
THERMAL_ZONE_1
 62
 15
 10
        3.00000
 20
        2.00000
 30
        3.50000
 11
        3.00000
 21
        6.00000
 31
        3.50000
 12
        0.00000
 22
        6.00000
 32
        3.50000
 13
        0.00000
 23
        2.00000
 33
        3.50000
999
THERMAL ZONE 2:SURFACE 14
  0
3DFACE
  8
THERMAL_ZONE_2
 62
 43
 10
        6.00000
 20
        2.00000
 30
        3.50000
 11
        6.00000
 21
        2.00000
 31
        0.00000
 12
        6.00000
 22
        6.00000
 32
        0.00000
 13
        6.00000
 23
        6.00000
 33
        3.50000
999
THERMAL ZONE 2:SURFACE 15
  0
3DFACE
  8
THERMAL_ZONE_2
 62
 43
 10
        6.00000
 20
        6.00000
 30
        3.50000
 11
        6.00000
 21
        6.00000
 31
        0.00000
 12
        3.00000
 22
        6.00000
 32
        0.00000
 13
        3.00000
 23
        6.00000
 33
        3.50000
999
THERMAL ZONE 2:SURFACE 16
  0
3DFACE
  8
THERMAL_ZONE_2
 62
 43
 10
        3.00000
 20
        2.00000
 30
        3.50000
 11
        3.00000
 21
        2.00000
 31
        0.00000
 12
        6.00000
 22
        2.00000
 32
        0.00000
 13
        6.00000
 23
        2.00000
 33
        3.50000
999
THERMAL ZONE 2:SURFACE 17
  0
3DFACE
  8
THERMAL_ZONE_2
 62
 43
 10
        3.00000
 20
        6.00000
 30
        3.50000
 11
        3.00000
 21
        6.00000
 31
        0.00000
 12
        3.00000
 22
        2.00000
 32
        0.00000
 13
        3.00000
 23
        2.00000
 33
        3.50000
999
THERMAL ZONE 2:SURFACE 3
  0
3DFACE
  8
THERMAL_ZONE_2
 62
  8
 10
        6.00000
 20
        6.00000
 30
        0.00000
 11
        6.00000
 21
        2.00000
 31
        0.00000
 12
        3.00000
 22
        2.00000
 32
        0.00000
 13
        3.00000
 23
        6.00000
 33
        0.00000
999
THERMAL ZONE 2:SURFACE 18
  0
3DFACE
  8
THERMAL_ZONE_2
 62
 15
 10
        6.00000
 20
        2.00000
 30
        3.50000
 11
        6.00000
 21
        6.00000
 31
        3.50000
 12
        3.00000
 22
        6.00000
 32
        3.50000
 13
        3.00000
 23
        2.00000
 33
        3.50000
999
THERMAL ZONE 3:SURFACE 19
  0
3DFACE
  8
THERMAL_ZONE_3
 62
 43
 10
        3.00000
 20
        2.00000
 30
        3.50000
 11
        3.00000
 21
        2.00000
 31
        0.00000
 12
        0.00000
 22
        2.00000
 32
        0.00000
 13
        0.00000
 23
        2.00000
 33
        3.50000
999
THERMAL ZONE 3:SURFACE 4
  0
3DFACE
  8
THERMAL_ZONE_3
 62
 43
 10
        6.00000
 20
        2.00000
 30
        3.50000
 11
        6.00000
 21
        2.00000
 31
        0.00000
 12
        3.00000
 22
        2.00000
 32
        0.00000
 13
        3.00000
 23
        2.00000
 33
        3.50000
999
THERMAL ZONE 3:SURFACE 5
  0
3DFACE
  8
THERMAL_ZONE_3
 62
 43
 10
        0.00000
 20
        0.00000
 30
        3.50000
 11
        0.00000
 21
        0.00000
 31
        0.00000
 12
        6.00000
 22
        0.00000
 32
        0.00000
 13
        6.00000
 23
        0.00000
 33
        3.50000
999
THERMAL ZONE 3:SURFACE 7
  0
3DFACE
  8
THERMAL_ZONE_3
 62
 43
 10
        0.00000
 20
        2.00000
 30
        3.50000
 11
        0.00000
 21
        2.00000
 31
        0.00000
 12
        0.00000
 22
        0.00000
 32
        0.00000
 13
        0.00000
 23
        0.00000
 33
        3.50000
999
THERMAL ZONE 3:SURFACE 8
  0
3DFACE
  8
THERMAL_ZONE_3
 62
 43
 10
        6.00000
 20
        0.00000
 30
        3.50000
 11
        6.00000
 21
        0.00000
 31
        0.00000
 12
        6.00000
 22
        2.00000
 32
        0.00000
 13
        6.00000
 23
        2.00000
 33
        3.50000
999
THERMAL ZONE 3:SURFACE 1
  0
3DFACE
  8
THERMAL_ZONE_3
 62
  8
 10
        6.00000
 20
        2.00000
 30
        0.00000
 11
        6.00000
 21
        0.00000
 31
        0.00000
 12
        0.00000
 22
        0.00000
 32
        0.00000
 13
        0.00000
 23
        2.00000
 33
        0.00000
999
THERMAL ZONE 3:SURFACE 6
  0
3DFACE
  8
THERMAL_ZONE_3
 62
 15
 10
        6.00000
 20
        0.00000
 30
        3.50000
 11
        6.00000
 21
        2.00000
 31
        3.50000
 12
        0.00000
 22
        2.00000
 32
        3.50000
 13
        0.00000
 23
        0.00000
 33
        3.50000
  0
ENDSEC
  0
EOF
